MESH_FORMAT= SU2
MESH_FILENAME= testMesh.su2
MATH_PROBLEM= DIRECT
SOLVER= NAVIER_STOKES
KIND_TURB_MODEL= NONE
RESTART_SOL= NO
WRT_RESTART_COMPACT= NO
SYSTEM_MEASUREMENTS= US
FLUID_MODEL= STANDARD_AIR
GAMMA_VALUE= 1.4
GAS_CONSTANT= 1716.49
MACH_NUMBER= 0.30
AOA= 0.0
FREESTREAM_TEMPERATURE= 1660.0
FREESTREAM_PRESSURE= 2116.216
REYNOLDS_NUMBER= 8.981e+04
REYNOLDS_LENGTH= 2
REF_LENGTH= 2.0
REF_AREA= 1.0
VISCOSITY_MODEL= SUTHERLAND
MU_REF= 3.737e-7
MU_T_REF= 518.67
SUTHERLAND_CONSTANT= 198.72
PRANDTL_LAM= 0.72
MARKER_PERIODIC= (Symmetry2, Symmetry1) , (0.0, 0.0, 0.0), (0.0, 0.0, 0.0), (0.0, -1.0471975511965976, 0.0)
MARKER_INLET= ( Inlet, 1689.88, 2252.564, 1.0, 0.0, 0.0 )
MARKER_OUTLET= ( Outlet, 2116.216 )
MARKER_HEATFLUX= ( Airfoils, 0.0)
MARKER_PLOTTING= ( Airfoils, Outlet )
MARKER_MONITORING= ( Airfoils, Outlet )
NUM_METHOD_GRAD= WEIGHTED_LEAST_SQUARES
MUSCL_FLOW= YES
SLOPE_LIMITER_FLOW= VENKATAKRISHNAN
VENKAT_LIMITER_COEFF= 0.02
CONV_NUM_METHOD_FLOW= ROE
ENTROPY_FIX_COEFF= 0.05
LOW_MACH_PREC= NO
ROE_KAPPA= 0.5
MIN_ROE_TURKEL_PREC= 0.01
MAX_ROE_TURKEL_PREC= 0.2
TIME_DISCRE_FLOW= EULER_IMPLICIT
LINEAR_SOLVER= FGMRES
LINEAR_SOLVER_PREC= ILU
LINEAR_SOLVER_ITER= 120
LINEAR_SOLVER_ERROR= 1e-6
CFL_NUMBER= 0.5
CFL_ADAPT= YES
CFL_ADAPT_PARAM= ( 0.5, 1.2, 0.01, 30.0,1e-3, 0 )
ITER= 5000
CONV_STARTITER= 20
CONV_RESIDUAL_MINVAL= -8
CONV_CAUCHY_ELEMS= 100
CONV_CAUCHY_EPS= 1e-6
OUTPUT_FILES= ( RESTART, PARAVIEW, SURFACE_CSV, CSV, SURFACE_PARAVIEW )
VOLUME_OUTPUT= (COORDINATES, SOLUTION, PRIMITIVE, CUSTOM)
OUTPUT_WRT_FREQ= 250, 250, 250, 250, 250
TABULAR_FORMAT= CSV
SOLUTION_FILENAME= solution_flow
SOLUTION_ADJ_FILENAME= solution_adj
CONV_FILENAME= history
RESTART_FILENAME= entire_surface_data
RESTART_ADJ_FILENAME= restart_adj
VOLUME_FILENAME= flow
VOLUME_ADJ_FILENAME= adjoint
GRAD_OBJFUNC_FILENAME= of_grad
SURFACE_FILENAME= surface_flow_markers
SURFACE_ADJ_FILENAME= surface_adjoint
SCREEN_OUTPUT= (INNER_ITER, WALL_TIME, RMS_DENSITY, RMS_MOMENTUM-X, RMS_MOMENTUM-Y, RMS_ENERGY)
MESH_OUT_FILENAME= mesh_out
